128
CNS Structure
C 0.000000 0.000000 0.000000
C 0.000000 1.440000 0.000000
H -1.247077 2.160000 0.000000
H -1.247077 3.600000 0.000000
H -2.494153 4.320000 0.000000
H -2.494153 5.760000 0.000000
H -3.741230 6.480000 0.000000
H -3.741230 7.920000 0.000000
H -4.988306 8.640000 0.000000
H -4.988306 10.080000 0.000000
H -6.235383 10.800000 0.000000
H -6.235383 12.240000 0.000000
H -7.482459 12.960000 0.000000
H -7.482459 14.400000 0.000000
H -8.729536 15.120000 0.000000
H -8.729536 16.560000 0.000000
C 2.494153 0.000000 0.000000
C 2.494153 1.440000 0.000000
C 1.247077 2.160000 0.000000
C 1.247077 3.600000 0.000000
C 0.000000 4.320000 0.000000
C 0.000000 5.760000 0.000000
H -1.247077 6.480000 0.000000
H -1.247077 7.920000 0.000000
H -2.494153 8.640000 0.000000
H -2.494153 10.080000 0.000000
H -3.741230 10.800000 0.000000
H -3.741230 12.240000 0.000000
H -4.988306 12.960000 0.000000
H -4.988306 14.400000 0.000000
H -6.235383 15.120000 0.000000
H -6.235383 16.560000 0.000000
C 4.988306 0.000000 0.000000
C 4.988306 1.440000 0.000000
C 3.741230 2.160000 0.000000
C 3.741230 3.600000 0.000000
C 2.494153 4.320000 0.000000
C 2.494153 5.760000 0.000000
C 1.247077 6.480000 0.000000
C 1.247077 7.920000 0.000000
C 0.000000 8.640000 0.000000
C 0.000000 10.080000 0.000000
H -1.247077 10.800000 0.000000
H -1.247077 12.240000 0.000000
H -2.494153 12.960000 0.000000
H -2.494153 14.400000 0.000000
H -3.741230 15.120000 0.000000
H -3.741230 16.560000 0.000000
C 7.482459 0.000000 0.000000
C 7.482459 1.440000 0.000000
C 6.235383 2.160000 0.000000
C 6.235383 3.600000 0.000000
C 4.988306 4.320000 0.000000
C 4.988306 5.760000 0.000000
C 3.741230 6.480000 0.000000
C 3.741230 7.920000 0.000000
C 2.494153 8.640000 0.000000
C 2.494153 10.080000 0.000000
C 1.247077 10.800000 0.000000
C 1.247077 12.240000 0.000000
C 0.000000 12.960000 0.000000
C 0.000000 14.400000 0.000000
H -1.247077 15.120000 0.000000
H -1.247077 16.560000 0.000000
H 9.976613 0.000000 0.000000
H 9.976613 1.440000 0.000000
C 8.729536 2.160000 0.000000
C 8.729536 3.600000 0.000000
C 7.482459 4.320000 0.000000
C 7.482459 5.760000 0.000000
C 6.235383 6.480000 0.000000
C 6.235383 7.920000 0.000000
C 4.988306 8.640000 0.000000
C 4.988306 10.080000 0.000000
C 3.741230 10.800000 0.000000
C 3.741230 12.240000 0.000000
C 2.494153 12.960000 0.000000
C 2.494153 14.400000 0.000000
C 1.247077 15.120000 0.000000
C 1.247077 16.560000 0.000000
H 12.470766 0.000000 0.000000
H 12.470766 1.440000 0.000000
H 11.223689 2.160000 0.000000
H 11.223689 3.600000 0.000000
H 9.976613 4.320000 0.000000
H 9.976613 5.760000 0.000000
C 8.729536 6.480000 0.000000
C 8.729536 7.920000 0.000000
C 7.482459 8.640000 0.000000
C 7.482459 10.080000 0.000000
C 6.235383 10.800000 0.000000
C 6.235383 12.240000 0.000000
C 4.988306 12.960000 0.000000
C 4.988306 14.400000 0.000000
C 3.741230 15.120000 0.000000
C 3.741230 16.560000 0.000000
H 14.964919 0.000000 0.000000
H 14.964919 1.440000 0.000000
H 13.717842 2.160000 0.000000
H 13.717842 3.600000 0.000000
H 12.470766 4.320000 0.000000
H 12.470766 5.760000 0.000000
H 11.223689 6.480000 0.000000
H 11.223689 7.920000 0.000000
H 9.976613 8.640000 0.000000
H 9.976613 10.080000 0.000000
C 8.729536 10.800000 0.000000
C 8.729536 12.240000 0.000000
C 7.482459 12.960000 0.000000
C 7.482459 14.400000 0.000000
C 6.235383 15.120000 0.000000
C 6.235383 16.560000 0.000000
H 17.459072 0.000000 0.000000
H 17.459072 1.440000 0.000000
H 16.211996 2.160000 0.000000
H 16.211996 3.600000 0.000000
H 14.964919 4.320000 0.000000
H 14.964919 5.760000 0.000000
H 13.717842 6.480000 0.000000
H 13.717842 7.920000 0.000000
H 12.470766 8.640000 0.000000
H 12.470766 10.080000 0.000000
H 11.223689 10.800000 0.000000
H 11.223689 12.240000 0.000000
H 9.976613 12.960000 0.000000
H 9.976613 14.400000 0.000000
C 8.729536 15.120000 0.000000
C 8.729536 16.560000 0.000000
