214
CNT Structure
C 2.862496 0.000000 0.000000
C 2.841625 0.345036 1.397844
C 1.626083 2.355788 0.798768
C 2.355788 1.626083 1.797229
C 2.142609 1.898186 3.195073
C 2.676480 1.015055 4.193533
C 2.534615 1.330268 5.591378
C 2.841625 0.345036 6.589838
C 2.779317 0.685040 7.987683
C 2.862496 0.000000 10.383988
C -0.685040 2.779317 0.199692
C 0.345036 2.841625 1.198152
C 0.000000 2.862496 2.595997
C 1.015055 2.676480 3.594457
C 0.685040 2.779317 4.992302
C 1.626083 2.355788 5.990762
C 1.330268 2.534615 7.388607
C 2.142609 1.898186 8.387067
C 1.898186 2.142609 9.784911
C 2.534615 1.330268 10.783372
C 2.355788 1.626083 12.181216
C 2.779317 0.685040 13.179677
C 2.676480 1.015055 14.577521
C 2.862496 -0.000000 15.575982
C 2.841625 0.345036 16.973826
C -1.898186 2.142609 0.599076
C -2.142609 1.898186 1.996921
C -1.330268 2.534615 2.995381
C -1.626083 2.355788 4.393226
C -0.685040 2.779317 5.391686
C -1.015055 2.676480 6.789530
C 0.000000 2.862496 7.787991
C -0.345036 2.841625 9.185835
C 0.685040 2.779317 10.184296
C 0.345036 2.841625 11.582140
C 1.330268 2.534615 12.580600
C 1.015055 2.676480 13.978445
C 1.898186 2.142609 14.976905
C 1.626083 2.355788 16.374750
C 2.355788 1.626083 17.373210
C 2.142609 1.898186 18.771055
C 2.676480 1.015055 19.769515
C 2.534615 1.330268 21.167359
C 2.841625 0.345036 22.165820
C 2.779317 0.685040 23.563664
C 2.862496 -0.000000 25.959969
C -2.862496 0.000000 -0.000000
C -2.841625 -0.345036 1.397844
C -2.779317 0.685040 2.396305
C -2.841625 0.345036 3.794149
C -2.534615 1.330268 4.792610
C -2.676480 1.015055 6.190454
C -2.142609 1.898186 7.188915
C -2.355788 1.626083 8.586759
C -1.626083 2.355788 9.585219
C -1.898186 2.142609 10.983064
C -1.015055 2.676480 11.981524
C -1.330268 2.534615 13.379369
C -0.345036 2.841625 14.377829
C -0.685040 2.779317 15.775674
C 0.345036 2.841625 16.774134
C 0.000000 2.862496 18.171978
C 1.015055 2.676480 19.170439
C 0.685040 2.779317 20.568283
C 1.626083 2.355788 21.566744
C 1.330268 2.534615 22.964588
C 2.142609 1.898186 23.963048
C 1.898186 2.142609 25.360893
C 2.534615 1.330268 26.359353
C 2.355788 1.626083 27.757198
C 2.779317 0.685040 28.755658
C 2.676480 1.015055 30.153503
C 2.862496 -0.000000 31.151963
C -1.626083 -2.355788 0.798768
C -2.355788 -1.626083 1.797229
C -2.142609 -1.898186 3.195073
C -2.676480 -1.015055 4.193533
C -2.534615 -1.330268 5.591378
C -2.841625 -0.345036 6.589838
C -2.779317 -0.685040 7.987683
C -2.841625 0.345036 8.986143
C -2.862496 0.000000 10.383988
C -2.676480 1.015055 11.382448
C -2.779317 0.685040 12.780293
C -2.355788 1.626083 13.778753
C -2.534615 1.330268 15.176597
C -1.898186 2.142609 16.175058
C -2.142609 1.898186 17.572902
C -1.330268 2.534615 18.571363
C -1.626083 2.355788 19.969207
C -0.685040 2.779317 20.967667
C -1.015055 2.676480 22.365512
C 0.000000 2.862496 23.363972
C -0.345036 2.841625 24.761817
C 0.685040 2.779317 25.760277
C 0.345036 2.841625 27.158122
C 1.330268 2.534615 28.156582
C 1.015055 2.676480 29.554426
C 1.898186 2.142609 30.552887
C 0.685040 -2.779317 0.199692
C -0.345036 -2.841625 1.198152
C -0.000000 -2.862496 2.595997
C -1.015055 -2.676480 3.594457
C -0.685040 -2.779317 4.992302
C -1.626083 -2.355788 5.990762
C -1.330268 -2.534615 7.388607
C -2.142609 -1.898186 8.387067
C -1.898186 -2.142609 9.784911
C -2.534615 -1.330268 10.783372
C -2.355788 -1.626083 12.181216
C -2.779317 -0.685040 13.179677
C -2.676480 -1.015055 14.577521
C -2.862496 0.000000 15.575982
C -2.841625 -0.345036 16.973826
C -2.779317 0.685040 17.972286
C -2.841625 0.345036 19.370131
C -2.534615 1.330268 20.368591
C -2.676480 1.015055 21.766436
C -2.142609 1.898186 22.764896
C -2.355788 1.626083 24.162741
C -1.626083 2.355788 25.161201
C -1.898186 2.142609 26.559045
C -1.015055 2.676480 27.557506
C -1.330268 2.534615 28.955350
C -0.345036 2.841625 29.953811
C 1.898186 -2.142609 0.599076
C 2.142609 -1.898186 1.996921
C 1.330268 -2.534615 2.995381
C 1.626083 -2.355788 4.393226
C 0.685040 -2.779317 5.391686
C 1.015055 -2.676480 6.789530
C 0.000000 -2.862496 7.787991
C 0.345036 -2.841625 9.185835
C -0.685040 -2.779317 10.184296
C -0.345036 -2.841625 11.582140
C -1.330268 -2.534615 12.580600
C -1.015055 -2.676480 13.978445
C -1.898186 -2.142609 14.976905
C -1.626083 -2.355788 16.374750
C -2.355788 -1.626083 17.373210
C -2.142609 -1.898186 18.771055
C -2.676480 -1.015055 19.769515
C -2.534615 -1.330268 21.167359
C -2.841625 -0.345036 22.165820
C -2.779317 -0.685040 23.563664
C -2.841625 0.345036 24.562125
C -2.862496 0.000000 25.959969
C -2.676480 1.015055 26.958430
C -2.779317 0.685040 28.356274
C -2.355788 1.626083 29.354734
C -2.534615 1.330268 30.752579
C 2.862496 -0.000000 -0.000000
C 2.779317 -0.685040 2.396305
C 2.841625 -0.345036 3.794149
C 2.534615 -1.330268 4.792610
C 2.676480 -1.015055 6.190454
C 2.142609 -1.898186 7.188915
C 2.355788 -1.626083 8.586759
C 1.626083 -2.355788 9.585219
C 1.898186 -2.142609 10.983064
C 1.015055 -2.676480 11.981524
C 1.330268 -2.534615 13.379369
C 0.345036 -2.841625 14.377829
C 0.685040 -2.779317 15.775674
C -0.345036 -2.841625 16.774134
C -0.000000 -2.862496 18.171978
C -1.015055 -2.676480 19.170439
C -0.685040 -2.779317 20.568283
C -1.626083 -2.355788 21.566744
C -1.330268 -2.534615 22.964588
C -2.142609 -1.898186 23.963048
C -1.898186 -2.142609 25.360893
C -2.534615 -1.330268 26.359353
C -2.355788 -1.626083 27.757198
C -2.779317 -0.685040 28.755658
C -2.676480 -1.015055 30.153503
C -2.862496 0.000000 31.151963
C 2.841625 -0.345036 8.986143
C 2.862496 -0.000000 10.383988
C 2.676480 -1.015055 11.382448
C 2.779317 -0.685040 12.780293
C 2.355788 -1.626083 13.778753
C 2.534615 -1.330268 15.176597
C 1.898186 -2.142609 16.175058
C 2.142609 -1.898186 17.572902
C 1.330268 -2.534615 18.571363
C 1.626083 -2.355788 19.969207
C 0.685040 -2.779317 20.967667
C 1.015055 -2.676480 22.365512
C -0.000000 -2.862496 23.363972
C 0.345036 -2.841625 24.761817
C -0.685040 -2.779317 25.760277
C -0.345036 -2.841625 27.158122
C -1.330268 -2.534615 28.156582
C -1.015055 -2.676480 29.554426
C -1.898186 -2.142609 30.552887
C 2.862496 -0.000000 15.575982
C 2.779317 -0.685040 17.972286
C 2.841625 -0.345036 19.370131
C 2.534615 -1.330268 20.368591
C 2.676480 -1.015055 21.766436
C 2.142609 -1.898186 22.764896
C 2.355788 -1.626083 24.162741
C 1.626083 -2.355788 25.161201
C 1.898186 -2.142609 26.559045
C 1.015055 -2.676480 27.557506
C 1.330268 -2.534615 28.955350
C 0.345036 -2.841625 29.953811
C 2.841625 -0.345036 24.562125
C 2.862496 -0.000000 25.959969
C 2.676480 -1.015055 26.958430
C 2.779317 -0.685040 28.356274
C 2.355788 -1.626083 29.354734
C 2.534615 -1.330268 30.752579
