200
CNT Structure
C 2.750197 0.000000 0.000000
C 2.656487 0.711803 1.247077
C 2.750197 0.000000 2.494153
C 2.656487 0.711803 3.741230
C 2.750197 0.000000 4.988306
C 2.656487 0.711803 6.235383
C 2.750197 0.000000 7.482459
C 2.656487 0.711803 8.729536
C 2.750197 0.000000 9.976613
C 2.656487 0.711803 11.223689
C 2.750197 0.000000 12.470766
C 2.656487 0.711803 13.717842
C 2.750197 0.000000 14.964919
C 2.656487 0.711803 16.211996
C 2.750197 0.000000 17.459072
C 2.656487 0.711803 18.706149
C 2.750197 0.000000 19.953225
C 2.656487 0.711803 21.200302
C 2.750197 0.000000 22.447378
C 2.656487 0.711803 23.694455
C 2.750197 0.000000 24.941532
C 2.656487 0.711803 26.188608
C 2.750197 0.000000 27.435685
C 2.656487 0.711803 28.682761
C 2.750197 0.000000 29.929838
C 1.375099 2.381741 0.000000
C 1.944683 1.944683 1.247077
C 1.375099 2.381741 2.494153
C 1.944683 1.944683 3.741230
C 1.375099 2.381741 4.988306
C 1.944683 1.944683 6.235383
C 1.375099 2.381741 7.482459
C 1.944683 1.944683 8.729536
C 1.375099 2.381741 9.976613
C 1.944683 1.944683 11.223689
C 1.375099 2.381741 12.470766
C 1.944683 1.944683 13.717842
C 1.375099 2.381741 14.964919
C 1.944683 1.944683 16.211996
C 1.375099 2.381741 17.459072
C 1.944683 1.944683 18.706149
C 1.375099 2.381741 19.953225
C 1.944683 1.944683 21.200302
C 1.375099 2.381741 22.447378
C 1.944683 1.944683 23.694455
C 1.375099 2.381741 24.941532
C 1.944683 1.944683 26.188608
C 1.375099 2.381741 27.435685
C 1.944683 1.944683 28.682761
C 1.375099 2.381741 29.929838
C 0.000000 2.750197 0.000000
C -0.711803 2.656487 1.247077
C 0.000000 2.750197 2.494153
C -0.711803 2.656487 3.741230
C 0.000000 2.750197 4.988306
C -0.711803 2.656487 6.235383
C 0.000000 2.750197 7.482459
C -0.711803 2.656487 8.729536
C -0.000000 2.750197 9.976613
C -0.711803 2.656487 11.223689
C 0.000000 2.750197 12.470766
C -0.711803 2.656487 13.717842
C 0.000000 2.750197 14.964919
C -0.711803 2.656487 16.211996
C 0.000000 2.750197 17.459072
C -0.711803 2.656487 18.706149
C -0.000000 2.750197 19.953225
C -0.711803 2.656487 21.200302
C -0.000000 2.750197 22.447378
C -0.711803 2.656487 23.694455
C -0.000000 2.750197 24.941532
C -0.711803 2.656487 26.188608
C 0.000000 2.750197 27.435685
C -0.711803 2.656487 28.682761
C -0.000000 2.750197 29.929838
C -2.381741 1.375099 0.000000
C -1.944683 1.944683 1.247077
C -2.381741 1.375099 2.494153
C -1.944683 1.944683 3.741230
C -2.381741 1.375099 4.988306
C -1.944683 1.944683 6.235383
C -2.381741 1.375099 7.482459
C -1.944683 1.944683 8.729536
C -2.381741 1.375099 9.976613
C -1.944683 1.944683 11.223689
C -2.381741 1.375099 12.470766
C -1.944683 1.944683 13.717842
C -2.381741 1.375099 14.964919
C -1.944683 1.944683 16.211996
C -2.381741 1.375099 17.459072
C -1.944683 1.944683 18.706149
C -2.381741 1.375099 19.953225
C -1.944683 1.944683 21.200302
C -2.381741 1.375099 22.447378
C -1.944683 1.944683 23.694455
C -2.381741 1.375099 24.941532
C -1.944683 1.944683 26.188608
C -2.381741 1.375099 27.435685
C -1.944683 1.944683 28.682761
C -2.381741 1.375099 29.929838
C -2.750197 0.000000 0.000000
C -2.656487 -0.711803 1.247077
C -2.750197 0.000000 2.494153
C -2.656487 -0.711803 3.741230
C -2.750197 0.000000 4.988306
C -2.656487 -0.711803 6.235383
C -2.750197 0.000000 7.482459
C -2.656487 -0.711803 8.729536
C -2.750197 0.000000 9.976613
C -2.656487 -0.711803 11.223689
C -2.750197 0.000000 12.470766
C -2.656487 -0.711803 13.717842
C -2.750197 0.000000 14.964919
C -2.656487 -0.711803 16.211996
C -2.750197 0.000000 17.459072
C -2.656487 -0.711803 18.706149
C -2.750197 -0.000000 19.953225
C -2.656487 -0.711803 21.200302
C -2.750197 0.000000 22.447378
C -2.656487 -0.711803 23.694455
C -2.750197 0.000000 24.941532
C -2.656487 -0.711803 26.188608
C -2.750197 0.000000 27.435685
C -2.656487 -0.711803 28.682761
C -2.750197 0.000000 29.929838
C -1.375099 -2.381741 0.000000
C -1.944683 -1.944683 1.247077
C -1.375099 -2.381741 2.494153
C -1.944683 -1.944683 3.741230
C -1.375099 -2.381741 4.988306
C -1.944683 -1.944683 6.235383
C -1.375099 -2.381741 7.482459
C -1.944683 -1.944683 8.729536
C -1.375099 -2.381741 9.976613
C -1.944683 -1.944683 11.223689
C -1.375099 -2.381741 12.470766
C -1.944683 -1.944683 13.717842
C -1.375099 -2.381741 14.964919
C -1.944683 -1.944683 16.211996
C -1.375099 -2.381741 17.459072
C -1.944683 -1.944683 18.706149
C -1.375099 -2.381741 19.953225
C -1.944683 -1.944683 21.200302
C -1.375099 -2.381741 22.447378
C -1.944683 -1.944683 23.694455
C -1.375099 -2.381741 24.941532
C -1.944683 -1.944683 26.188608
C -1.375099 -2.381741 27.435685
C -1.944683 -1.944683 28.682761
C -1.375099 -2.381741 29.929838
C -0.000000 -2.750197 0.000000
C 0.711803 -2.656487 1.247077
C -0.000000 -2.750197 2.494153
C 0.711803 -2.656487 3.741230
C -0.000000 -2.750197 4.988306
C 0.711803 -2.656487 6.235383
C -0.000000 -2.750197 7.482459
C 0.711803 -2.656487 8.729536
C -0.000000 -2.750197 9.976613
C 0.711803 -2.656487 11.223689
C -0.000000 -2.750197 12.470766
C 0.711803 -2.656487 13.717842
C -0.000000 -2.750197 14.964919
C 0.711803 -2.656487 16.211996
C -0.000000 -2.750197 17.459072
C 0.711803 -2.656487 18.706149
C -0.000000 -2.750197 19.953225
C 0.711803 -2.656487 21.200302
C -0.000000 -2.750197 22.447378
C 0.711803 -2.656487 23.694455
C -0.000000 -2.750197 24.941532
C 0.711803 -2.656487 26.188608
C -0.000000 -2.750197 27.435685
C 0.711803 -2.656487 28.682761
C -0.000000 -2.750197 29.929838
C 2.381741 -1.375099 -0.000000
C 1.944683 -1.944683 1.247077
C 2.381741 -1.375099 2.494153
C 1.944683 -1.944683 3.741230
C 2.381741 -1.375099 4.988306
C 1.944683 -1.944683 6.235383
C 2.381741 -1.375099 7.482459
C 1.944683 -1.944683 8.729536
C 2.381741 -1.375099 9.976613
C 1.944683 -1.944683 11.223689
C 2.381741 -1.375099 12.470766
C 1.944683 -1.944683 13.717842
C 2.381741 -1.375099 14.964919
C 1.944683 -1.944683 16.211996
C 2.381741 -1.375099 17.459072
C 1.944683 -1.944683 18.706149
C 2.381741 -1.375099 19.953225
C 1.944683 -1.944683 21.200302
C 2.381741 -1.375099 22.447378
C 1.944683 -1.944683 23.694455
C 2.381741 -1.375099 24.941532
C 1.944683 -1.944683 26.188608
C 2.381741 -1.375099 27.435685
C 1.944683 -1.944683 28.682761
C 2.381741 -1.375099 29.929838
