64
CNT Structure
C 1.587827 0.000000 0.000000
C 1.587827 0.000000 1.440000
C 0.000000 1.587827 0.000000
C 0.000000 1.587827 1.440000
C 1.122763 1.122763 2.160000
C 1.122763 1.122763 3.600000
C 1.587827 0.000000 4.320000
C 1.587827 0.000000 5.760000
C -1.587827 0.000000 0.000000
C -1.587827 0.000000 1.440000
C -1.122763 1.122763 2.160000
C -1.122763 1.122763 3.600000
C 0.000000 1.587827 4.320000
C 0.000000 1.587827 5.760000
C 1.122763 1.122763 6.480000
C 1.122763 1.122763 7.920000
C 1.587827 0.000000 8.640000
C 1.587827 0.000000 10.080000
C -0.000000 -1.587827 0.000000
C -0.000000 -1.587827 1.440000
C -1.122763 -1.122763 2.160000
C -1.122763 -1.122763 3.600000
C -1.587827 0.000000 4.320000
C -1.587827 0.000000 5.760000
C -1.122763 1.122763 6.480000
C -1.122763 1.122763 7.920000
C 0.000000 1.587827 8.640000
C 0.000000 1.587827 10.080000
C 1.122763 1.122763 10.800000
C 1.122763 1.122763 12.240000
C 1.587827 0.000000 12.960000
C 1.587827 0.000000 14.400000
C 1.122763 -1.122763 2.160000
C 1.122763 -1.122763 3.600000
C -0.000000 -1.587827 4.320000
C -0.000000 -1.587827 5.760000
C -1.122763 -1.122763 6.480000
C -1.122763 -1.122763 7.920000
C -1.587827 0.000000 8.640000
C -1.587827 0.000000 10.080000
C -1.122763 1.122763 10.800000
C -1.122763 1.122763 12.240000
C 0.000000 1.587827 12.960000
C 0.000000 1.587827 14.400000
C 1.122763 1.122763 15.120000
C 1.122763 1.122763 16.560000
C 1.122763 -1.122763 6.480000
C 1.122763 -1.122763 7.920000
C -0.000000 -1.587827 8.640000
C -0.000000 -1.587827 10.080000
C -1.122763 -1.122763 10.800000
C -1.122763 -1.122763 12.240000
C -1.587827 0.000000 12.960000
C -1.587827 0.000000 14.400000
C -1.122763 1.122763 15.120000
C -1.122763 1.122763 16.560000
C 1.122763 -1.122763 10.800000
C 1.122763 -1.122763 12.240000
C -0.000000 -1.587827 12.960000
C -0.000000 -1.587827 14.400000
C -1.122763 -1.122763 15.120000
C -1.122763 -1.122763 16.560000
C 1.122763 -1.122763 15.120000
C 1.122763 -1.122763 16.560000
